9601115
  -OEChem-03282618013D

 46 47  0     1  0  0  0  0  0999 V2000
    0.7422   -0.1346    2.3353 S   0  0  0  0  0  0  0  0  0  0  0  0
   -1.4950    3.5296   -0.5339 S   0  0  0  0  0  0  0  0  0  0  0  0
    1.4347   -0.4379   -0.2281 O   0  0  0  0  0  0  0  0  0  0  0  0
    5.3900   -1.3020    0.4774 O   0  0  0  0  0  0  0  0  0  0  0  0
    4.5006   -0.5890   -2.2209 O   0  0  0  0  0  0  0  0  0  0  0  0
    3.8575    0.1062    2.4749 O   0  0  0  0  0  0  0  0  0  0  0  0
    0.3399   -0.0396   -2.7149 O   0  0  0  0  0  0  0  0  0  0  0  0
   -1.7053    2.2574    0.4668 O   0  0  0  0  0  0  0  0  0  0  0  0
   -4.0112   -3.7401   -1.4434 O   0  0  0  0  0  0  0  0  0  0  0  0
   -3.0191    3.8768   -0.9969 O   0  0  0  0  0  0  0  0  0  0  0  0
   -0.7718    3.0756   -1.7071 O   0  0  0  0  0  0  0  0  0  0  0  0
   -1.0073    4.6500    0.2487 O   0  0  0  0  0  0  0  0  0  0  0  0
   -0.4832    1.7140    0.8684 N   0  0  0  0  0  0  0  0  0  0  0  0
    4.2758   -0.4586    0.1790 C   0  0  1  0  0  0  0  0  0  0  0  0
    3.6349   -0.9076   -1.1347 C   0  0  1  0  0  0  0  0  0  0  0  0
    2.2913   -0.2054   -1.3469 C   0  0  1  0  0  0  0  0  0  0  0  0
    3.2868   -0.5530    1.3451 C   0  0  2  0  0  0  0  0  0  0  0  0
    1.9526    0.1081    0.9848 C   0  0  2  0  0  0  0  0  0  0  0  0
    1.5735   -0.7233   -2.5893 C   0  0  0  0  0  0  0  0  0  0  0  0
   -0.6533    0.7041    1.6629 C   0  0  0  0  0  0  0  0  0  0  0  0
   -1.9884    0.1430    2.1148 C   0  0  0  0  0  0  0  0  0  0  0  0
   -2.5294   -0.8959    1.1625 C   0  0  0  0  0  0  0  0  0  0  0  0
   -3.3462   -0.4984    0.1162 C   0  0  0  0  0  0  0  0  0  0  0  0
   -2.1996   -2.2283    1.3530 C   0  0  0  0  0  0  0  0  0  0  0  0
   -3.8465   -1.4588   -0.7631 C   0  0  0  0  0  0  0  0  0  0  0  0
   -2.6998   -3.1886    0.4737 C   0  0  0  0  0  0  0  0  0  0  0  0
   -3.5234   -2.8039   -0.5843 C   0  0  0  0  0  0  0  0  0  0  0  0
    4.6740    0.5591    0.0827 H   0  0  0  0  0  0  0  0  0  0  0  0
    3.5005   -1.9967   -1.1238 H   0  0  0  0  0  0  0  0  0  0  0  0
    3.1490   -1.6108    1.6054 H   0  0  0  0  0  0  0  0  0  0  0  0
    2.4322    0.8783   -1.4602 H   0  0  0  0  0  0  0  0  0  0  0  0
    2.0963    1.1899    0.8715 H   0  0  0  0  0  0  0  0  0  0  0  0
    1.3456   -1.7898   -2.4948 H   0  0  0  0  0  0  0  0  0  0  0  0
    2.1580   -0.5669   -3.5008 H   0  0  0  0  0  0  0  0  0  0  0  0
    5.7674   -0.9980    1.3207 H   0  0  0  0  0  0  0  0  0  0  0  0
    5.3543   -1.0217   -2.0488 H   0  0  0  0  0  0  0  0  0  0  0  0
    3.2121    0.0491    3.2001 H   0  0  0  0  0  0  0  0  0  0  0  0
    0.5354    0.9068   -2.8226 H   0  0  0  0  0  0  0  0  0  0  0  0
   -2.7136    0.9575    2.2327 H   0  0  0  0  0  0  0  0  0  0  0  0
   -1.8960   -0.2910    3.1190 H   0  0  0  0  0  0  0  0  0  0  0  0
   -3.6167    0.5425   -0.0302 H   0  0  0  0  0  0  0  0  0  0  0  0
   -1.5624   -2.5406    2.1751 H   0  0  0  0  0  0  0  0  0  0  0  0
   -4.4893   -1.1532   -1.5842 H   0  0  0  0  0  0  0  0  0  0  0  0
   -2.4410   -4.2333    0.6241 H   0  0  0  0  0  0  0  0  0  0  0  0
   -3.6875   -4.6160   -1.1714 H   0  0  0  0  0  0  0  0  0  0  0  0
   -3.6828    3.9148   -0.2686 H   0  0  0  0  0  0  0  0  0  0  0  0
  1 18  1  0  0  0  0
  1 20  1  0  0  0  0
  2  8  1  0  0  0  0
  2 10  1  0  0  0  0
  2 11  2  0  0  0  0
  2 12  2  0  0  0  0
  3 16  1  0  0  0  0
  3 18  1  0  0  0  0
  4 14  1  0  0  0  0
  4 35  1  0  0  0  0
  5 15  1  0  0  0  0
  5 36  1  0  0  0  0
  6 17  1  0  0  0  0
  6 37  1  0  0  0  0
  7 19  1  0  0  0  0
  7 38  1  0  0  0  0
  8 13  1  0  0  0  0
  9 27  1  0  0  0  0
  9 45  1  0  0  0  0
 10 46  1  0  0  0  0
 13 20  2  0  0  0  0
 14 15  1  0  0  0  0
 14 17  1  0  0  0  0
 14 28  1  0  0  0  0
 15 16  1  0  0  0  0
 15 29  1  0  0  0  0
 16 19  1  0  0  0  0
 16 31  1  0  0  0  0
 17 18  1  0  0  0  0
 17 30  1  0  0  0  0
 18 32  1  0  0  0  0
 19 33  1  0  0  0  0
 19 34  1  0  0  0  0
 20 21  1  0  0  0  0
 21 22  1  0  0  0  0
 21 39  1  0  0  0  0
 21 40  1  0  0  0  0
 22 23  2  0  0  0  0
 22 24  1  0  0  0  0
 23 25  1  0  0  0  0
 23 41  1  0  0  0  0
 24 26  2  0  0  0  0
 24 42  1  0  0  0  0
 25 27  2  0  0  0  0
 25 43  1  0  0  0  0
 26 27  1  0  0  0  0
 26 44  1  0  0  0  0
M  END
> <PUBCHEM_COMPOUND_CID>
9601115

> <PUBCHEM_CONFORMER_RMSD>
1

> <PUBCHEM_CONFORMER_DIVERSEORDER>
1
81
136
76
84
131
123
44
88
49
105
13
113
115
133
86
120
40
89
103
78
94
24
43
9
64
14
124
135
74
61
111
8
100
10
53
82
68
116
39
30
33
97
19
104
46
3
28
17
75
80
77
55
134
21
128
2
69
110
117
138
139
65
6
4
108
143
51
121
29
126
52
54
26
92
140
11
106
112
142
85
102
7
62
34
35
83
107
59
118
41
109
60
72
137
20
67
130
45
58
125
95
42
15
79
119
57
23
27
101
16
31
98
93
37
47
129
12
56
25
90
91
63
50
18
22
122
48
70
114
71
87
36
132
5
127
73
141
144
99
38
32
96
66

> <PUBCHEM_MMFF94_PARTIAL_CHARGES>
37
1 -0.37
10 -0.68
11 -0.65
12 -0.65
13 -0.51
14 0.28
15 0.28
16 0.28
17 0.28
18 0.51
19 0.28
2 1.67
20 0.53
21 0.2
22 -0.14
23 -0.15
24 -0.15
25 -0.15
26 -0.15
27 0.08
3 -0.56
35 0.4
36 0.4
37 0.4
38 0.4
4 -0.68
41 0.15
42 0.15
43 0.15
44 0.15
45 0.45
46 0.5
5 -0.68
6 -0.68
7 -0.68
8 -0.12
9 -0.53

> <PUBCHEM_EFFECTIVE_ROTOR_COUNT>
8.2

> <PUBCHEM_PHARMACOPHORE_FEATURES>
17
1 10 acceptor
1 11 acceptor
1 12 acceptor
1 13 acceptor
1 3 acceptor
1 4 acceptor
1 4 donor
1 5 acceptor
1 5 donor
1 6 acceptor
1 6 donor
1 7 acceptor
1 7 donor
1 9 donor
4 2 10 11 12 anion
6 22 23 24 25 26 27 rings
6 3 14 15 16 17 18 rings

> <PUBCHEM_HEAVY_ATOM_COUNT>
27

> <PUBCHEM_ATOM_DEF_STEREO_COUNT>
5

> <PUBCHEM_ATOM_UDEF_STEREO_COUNT>
0

> <PUBCHEM_BOND_DEF_STEREO_COUNT>
1

> <PUBCHEM_BOND_UDEF_STEREO_COUNT>
0

> <PUBCHEM_ISOTOPIC_ATOM_COUNT>
0

> <PUBCHEM_COMPONENT_COUNT>
1

> <PUBCHEM_CACTVS_TAUTO_COUNT>
2

> <PUBCHEM_CONFORMER_ID>
0092805B00000001

> <PUBCHEM_MMFF94_ENERGY>
58.0086

> <PUBCHEM_FEATURE_SELFOVERLAP>
86.355

> <PUBCHEM_SHAPE_FINGERPRINT>
11244481 83 17756971669337815007
11477941 20 18048635670291076564
11582403 64 16331808602733444872
12156800 1 16406406086175459343
12160290 23 18264497195639381937
12363563 72 18199192969449424003
12539773 59 17531543000641022167
12553582 1 18262811760183113979
12633257 1 16270551588709130042
12788726 201 18260838063955034605
133893 2 17762358198266732713
13583140 156 18057588903323615834
13681431 1 18051697938664325905
14004458 79 18336256895151207377
14863182 85 16769867530179665935
1813 80 18268157628909652779
20600515 1 18269269235022818843
22620623 9 18411978027388549801
23419403 2 17774137111505544145
23557571 272 18343298137403287288
23598288 3 17677917659353067689
238 59 16628256711990962452
24893989 43 16542907294179968485
26353 1 18263084477874462317
35225 105 17972574629429490069
4280585 95 18266448974733439578
5262128 65 18049439550655690731
57100710 210 18411697669298592634
57527293 21 18272938245411300082
6438718 38 17825130124191918240
7471813 234 18113621222454799260

> <PUBCHEM_SHAPE_MULTIPOLES>
499.67
8.3
4.44
2.61
6.23
5.52
-0.39
-6.99
-1.22
-6.63
-1.63
1.5
-0.32
0.01

> <PUBCHEM_SHAPE_SELFOVERLAP>
1009.651

> <PUBCHEM_SHAPE_VOLUME>
292.3

> <PUBCHEM_COORDINATE_TYPE>
2
5
10

$$$$
