5485207
  -OEChem-03282617543D

 45 45  0     1  0  0  0  0  0999 V2000
   -0.4420   -1.2979   -0.8699 S   0  0  0  0  0  0  0  0  0  0  0  0
   -1.2335    2.9421   -0.7879 S   0  0  0  0  0  0  0  0  0  0  0  0
    1.4959    0.1773    0.2306 O   0  0  0  0  0  0  0  0  0  0  0  0
    4.6326   -1.9649   -1.3384 O   0  0  0  0  0  0  0  0  0  0  0  0
    5.0921   -0.0822    0.8580 O   0  0  0  0  0  0  0  0  0  0  0  0
    2.0326   -3.1947   -1.1165 O   0  0  0  0  0  0  0  0  0  0  0  0
    1.7478    2.1965    2.0745 O   0  0  0  0  0  0  0  0  0  0  0  0
   -0.9922    1.3277   -0.7505 O   0  0  0  0  0  0  0  0  0  0  0  0
   -0.2352    3.4265   -1.9822 O   0  0  0  0  0  0  0  0  0  0  0  0
   -0.7385    3.5068    0.4538 O   0  0  0  0  0  0  0  0  0  0  0  0
   -2.5948    3.1920   -1.2235 O   0  0  0  0  0  0  0  0  0  0  0  0
   -1.6658    0.7356    0.3210 N   0  0  0  0  0  0  0  0  0  0  0  0
    3.6654   -1.6107   -0.3481 C   0  0  1  0  0  0  0  0  0  0  0  0
    3.8935   -0.1641    0.0918 C   0  0  1  0  0  0  0  0  0  0  0  0
    2.2734   -1.7967   -0.9602 C   0  0  2  0  0  0  0  0  0  0  0  0
    2.7228    0.3308    0.9452 C   0  0  1  0  0  0  0  0  0  0  0  0
    1.1944   -1.1875   -0.0592 C   0  0  2  0  0  0  0  0  0  0  0  0
    2.8661    1.8081    1.2977 C   0  0  0  0  0  0  0  0  0  0  0  0
   -1.4733   -0.5457    0.3493 C   0  0  0  0  0  0  0  0  0  0  0  0
   -2.0508   -1.5072    1.3727 C   0  0  0  0  0  0  0  0  0  0  0  0
   -3.5787   -1.4443    1.4536 C   0  0  0  0  0  0  0  0  0  0  0  0
   -4.2649   -1.8549    0.1476 C   0  0  0  0  0  0  0  0  0  0  0  0
   -5.7582   -1.8598    0.2982 C   0  0  0  0  0  0  0  0  0  0  0  0
   -6.5888   -1.1330   -0.4577 C   0  0  0  0  0  0  0  0  0  0  0  0
    3.8201   -2.3014    0.4892 H   0  0  0  0  0  0  0  0  0  0  0  0
    4.0232    0.4736   -0.7909 H   0  0  0  0  0  0  0  0  0  0  0  0
    2.2537   -1.3417   -1.9586 H   0  0  0  0  0  0  0  0  0  0  0  0
    2.6516   -0.2359    1.8836 H   0  0  0  0  0  0  0  0  0  0  0  0
    1.1140   -1.7483    0.8803 H   0  0  0  0  0  0  0  0  0  0  0  0
    2.8730    2.4254    0.3931 H   0  0  0  0  0  0  0  0  0  0  0  0
    3.7770    1.9983    1.8732 H   0  0  0  0  0  0  0  0  0  0  0  0
    4.5366   -1.3525   -2.0877 H   0  0  0  0  0  0  0  0  0  0  0  0
    4.9838   -0.6407    1.6466 H   0  0  0  0  0  0  0  0  0  0  0  0
    2.0329   -3.6006   -0.2328 H   0  0  0  0  0  0  0  0  0  0  0  0
   -1.6317   -1.2265    2.3464 H   0  0  0  0  0  0  0  0  0  0  0  0
   -1.7347   -2.5367    1.1717 H   0  0  0  0  0  0  0  0  0  0  0  0
    1.8541    3.1412    2.2787 H   0  0  0  0  0  0  0  0  0  0  0  0
   -3.8888   -0.4263    1.7227 H   0  0  0  0  0  0  0  0  0  0  0  0
   -3.9091   -2.1003    2.2689 H   0  0  0  0  0  0  0  0  0  0  0  0
   -3.9428   -2.8643   -0.1350 H   0  0  0  0  0  0  0  0  0  0  0  0
   -3.9644   -1.1836   -0.6652 H   0  0  0  0  0  0  0  0  0  0  0  0
   -6.1823   -2.5100    1.0591 H   0  0  0  0  0  0  0  0  0  0  0  0
   -7.6610   -1.1878   -0.3041 H   0  0  0  0  0  0  0  0  0  0  0  0
   -6.2187   -0.4750   -1.2360 H   0  0  0  0  0  0  0  0  0  0  0  0
   -0.2316    4.3959   -2.1620 H   0  0  0  0  0  0  0  0  0  0  0  0
  1 17  1  0  0  0  0
  1 19  1  0  0  0  0
  2  8  1  0  0  0  0
  2  9  1  0  0  0  0
  2 10  2  0  0  0  0
  2 11  2  0  0  0  0
  3 16  1  0  0  0  0
  3 17  1  0  0  0  0
  4 13  1  0  0  0  0
  4 32  1  0  0  0  0
  5 14  1  0  0  0  0
  5 33  1  0  0  0  0
  6 15  1  0  0  0  0
  6 34  1  0  0  0  0
  7 18  1  0  0  0  0
  7 37  1  0  0  0  0
  8 12  1  0  0  0  0
  9 45  1  0  0  0  0
 12 19  2  0  0  0  0
 13 14  1  0  0  0  0
 13 15  1  0  0  0  0
 13 25  1  0  0  0  0
 14 16  1  0  0  0  0
 14 26  1  0  0  0  0
 15 17  1  0  0  0  0
 15 27  1  0  0  0  0
 16 18  1  0  0  0  0
 16 28  1  0  0  0  0
 17 29  1  0  0  0  0
 18 30  1  0  0  0  0
 18 31  1  0  0  0  0
 19 20  1  0  0  0  0
 20 21  1  0  0  0  0
 20 35  1  0  0  0  0
 20 36  1  0  0  0  0
 21 22  1  0  0  0  0
 21 38  1  0  0  0  0
 21 39  1  0  0  0  0
 22 23  1  0  0  0  0
 22 40  1  0  0  0  0
 22 41  1  0  0  0  0
 23 24  2  0  0  0  0
 23 42  1  0  0  0  0
 24 43  1  0  0  0  0
 24 44  1  0  0  0  0
M  END
> <PUBCHEM_COMPOUND_CID>
5485207

> <PUBCHEM_CONFORMER_RMSD>
1

> <PUBCHEM_CONFORMER_DIVERSEORDER>
1
9
43
8
17
14
31
28
33
39
41
38
37
34
7
35
42
36
26
40
27
19
3
21
2
25
29
24
13
12
22
20
4
30
16
6
15
5
11
32
23
10
18

> <PUBCHEM_MMFF94_PARTIAL_CHARGES>
31
1 -0.37
10 -0.65
11 -0.65
12 -0.51
13 0.28
14 0.28
15 0.28
16 0.28
17 0.51
18 0.28
19 0.53
2 1.67
20 0.06
22 0.14
23 -0.29
24 -0.3
3 -0.56
32 0.4
33 0.4
34 0.4
37 0.4
4 -0.68
42 0.15
43 0.15
44 0.15
45 0.5
5 -0.68
6 -0.68
7 -0.68
8 -0.12
9 -0.68

> <PUBCHEM_EFFECTIVE_ROTOR_COUNT>
10.2

> <PUBCHEM_PHARMACOPHORE_FEATURES>
17
1 10 acceptor
1 11 acceptor
1 12 acceptor
1 24 hydrophobe
1 3 acceptor
1 4 acceptor
1 4 donor
1 5 acceptor
1 5 donor
1 6 acceptor
1 6 donor
1 7 acceptor
1 7 donor
1 9 acceptor
4 2 9 10 11 anion
4 20 21 22 23 hydrophobe
6 3 13 14 15 16 17 rings

> <PUBCHEM_HEAVY_ATOM_COUNT>
24

> <PUBCHEM_ATOM_DEF_STEREO_COUNT>
5

> <PUBCHEM_ATOM_UDEF_STEREO_COUNT>
0

> <PUBCHEM_BOND_DEF_STEREO_COUNT>
1

> <PUBCHEM_BOND_UDEF_STEREO_COUNT>
0

> <PUBCHEM_ISOTOPIC_ATOM_COUNT>
0

> <PUBCHEM_COMPONENT_COUNT>
1

> <PUBCHEM_CACTVS_TAUTO_COUNT>
1

> <PUBCHEM_CONFORMER_ID>
0053B29700000001

> <PUBCHEM_MMFF94_ENERGY>
47.6565

> <PUBCHEM_FEATURE_SELFOVERLAP>
86.354

> <PUBCHEM_SHAPE_FINGERPRINT>
10165383 225 17914333730735428048
10366900 7 18336278885226072490
10688039 33 18334294275179489488
12403259 226 18341050718445667966
12788726 201 18113900416714419419
13965767 371 17695599120645837888
14415360 78 16838224185369783225
14790565 3 17329148486324602677
15420108 30 17186988238465401289
15664445 248 18041557060953173721
17357779 13 18410283723120097989
17980427 23 17846234262914545235
20600515 1 17459186455209452539
20642791 13 18408323255254328873
20739085 24 18195523924695084750
21285901 2 18410013230353969511
23557571 272 18260824895542782173
23559900 14 18263089966800670123
2748010 2 18129937867947957834
31174 14 18202283632199452074
314173 85 18334584555150653427
3187 122 18188196676234378636
5283173 99 18115019711282930981
621550 34 18343015618807337690
6443956 14 18339644572159930497
6913067 236 18342727542160340755
7399639 24 18342447154221377402
81228 2 18187941529749720209
9971528 1 18338800130260821915

> <PUBCHEM_SHAPE_MULTIPOLES>
443.8
10.57
4.06
1.51
10.63
4.16
-0.13
-7.78
-0.73
0.3
1.65
-0.46
0.58
2.48

> <PUBCHEM_SHAPE_SELFOVERLAP>
853.82

> <PUBCHEM_SHAPE_VOLUME>
270.3

> <PUBCHEM_COORDINATE_TYPE>
2
5
10

$$$$
